-------------------------------------------------------
          Amber 14 SANDER                              2014
          -------------------------------------------------------

  [-O]verwriting output

File Assignments:

 Here is the input file:

NPT prod
 &cntrl
  imin=0, ! Not a minimization run
  ntx=5, ! Read coordinates and velocities from restart file
  irest=1, ! Restart from previous, expecting velocities
  ntxo=2, ! The final coords, velocities, box size in NetCDF
  ioutfm=1, ! Print mdcrd to NetCDF format
  ntwr=100000, ! Very high value for how often restart file is written
  nstlim=50000 ! 100 ps of NPT equilibration
  dt=0.002, ! Time step in picoseconds, so this is 2 fs
  ntf=2, ! Do not calc the force for SHAKE constrained bonds
  ntc=2, ! Use SHAKE for all hydrogen bonds
  temp0=300.0, ! Thermostat temperature, Run at this temperature
  ntpr=1000, ! How often to print
  ntwx=1000, ! Write coordinates every 2 ps
  cut=8.0, ! Nonbonded cutoff
  ntb=2, ! Use PBC and constant pressure
  ntp=1, ! Isotropic pressure scaling
  barostat=2, ! Use Monte Carlo barostat
  taup=1, ! Pressure relaxation time
  ntt=3, ! Use the Lengevin thermostat
  gamma_ln=1.0, ! Frequency of collisions for thermostat
  ig=-1, ! Randomize seed for Langevin thermostat
 /

Note: ig = -1. Setting random seed to   392902 based on wallclock time in
      microseconds.

--------------------------------------------------------------------------------
   1.  RESOURCE   USE:
--------------------------------------------------------------------------------

 getting box info from netcdf restart file
 NATOM  =    5771 NTYPES =      15 NBONH =    5616 MBONA  =     160
 NTHETH =     346 MTHETA =     219 NPHIH =     700 MPHIA  =     653
 NHPARM =       0 NPARM  =       0 NNB   =    8990 NRES   =    1843
 NBONA  =     160 NTHETA =     219 NPHIA =     653 NUMBND =      55
 NUMANG =     124 NPTRA  =     137 NATYP =      29 NPHB   =       1
 IFBOX  =       2 NMXRS  =      24 IFCAP =       0 NEXTRA =       0
 NCOPY  =       0

     BOX TYPE: TRUNCATED OCTAHEDRON

--------------------------------------------------------------------------------
   2.  CONTROL  DATA  FOR  THE  RUN
--------------------------------------------------------------------------------

default_name

General flags:
     imin    =       0, nmropt  =       0

Nature and format of input:
     ntx     =       5, irest   =       1, ntrx    =       1

Nature and format of output:
     ntxo    =       2, ntpr    =    1000, ntrx    =       1, ntwr    =  100000
     iwrap   =       0, ntwx    =    1000, ntwv    =       0, ntwe    =       0
     ioutfm  =       1, ntwprt  =       0, idecomp =       0, rbornstat=      0

Potential function:
     ntf     =       2, ntb     =       2, igb     =       0, nsnb    =      25
     ipol    =       0, gbsa    =       0, iesp    =       0
     dielc   =   1.00000, cut     =   8.00000, intdiel =   1.00000

Frozen or restrained atoms:
     ibelly  =       0, ntr     =       0

Molecular dynamics:
     nstlim  =     50000, nscm    =      1000, nrespa  =         1
     t       =   0.00000, dt      =   0.00200, vlimit  =  -1.00000

Langevin dynamics temperature regulation:
     ig      =  392902
     temp0   = 300.00000, tempi   =   0.00000, gamma_ln=   1.00000

Pressure regulation:
     ntp     =       1
     pres0   =   1.00000, comp    =  44.60000, taup    =   1.00000
     Monte-Carlo Barostat:
     mcbarint  =     100

SHAKE:
     ntc     =       2, jfastw  =       0
     tol     =   0.00001

Ewald parameters:
     verbose =       0, ew_type =       0, nbflag  =       1, use_pme =       1
     vdwmeth =       1, eedmeth =       1, netfrc  =       1
     Box X =   42.082   Box Y =   42.082   Box Z =   42.082
     Alpha =  109.471   Beta  =  109.471   Gamma =  109.471
     NFFT1 =   48       NFFT2 =   48       NFFT3 =   48
     Cutoff=    8.000   Tol   =0.100E-04
     Ewald Coefficient =  0.34864
     Interpolation order =    4

--------------------------------------------------------------------------------
   3.  ATOMIC COORDINATES AND VELOCITIES
--------------------------------------------------------------------------------

default_name
 begin time read from input coords =  1700.000 ps

 Number of triangulated 3-point waters found:     1822

     Sum of charges from parm topology file =  -0.00000001
     Forcing neutrality...

--------------------------------------------------------------------------------
   4.  RESULTS
 NSTEP =     1000   TIME(PS) =    1702.000  TEMP(K) =   293.09  PRESS =     0.0
 Etot   =    -14538.9000  EKtot   =      3406.3364  EPtot      =    -17945.2365
 BOND   =        60.5669  ANGLE   =       161.0614  DIHED      =       256.7774
 1-4 NB =        66.4294  1-4 EEL =       891.3002  VDWAALS    =      2446.6369
 EELEC  =    -21828.0086  EHBOND  =         0.0000  RESTRAINT  =         0.0000
 EKCMT  =         0.0000  VIRIAL  =         0.0000  VOLUME     =     57509.1442
                                                    Density    =         1.0115
 ------------------------------------------------------------------------------

      A V E R A G E S   O V E R      50 S T E P S

 NSTEP =    50000   TIME(PS) =    1800.000  TEMP(K) =   299.62  PRESS =     0.0
 Etot   =    -14518.3336  EKtot   =      3482.1657  EPtot      =    -18000.4994
 BOND   =        61.3104  ANGLE   =       156.8945  DIHED      =       252.0433
 1-4 NB =        66.6033  1-4 EEL =       875.6314  VDWAALS    =      2414.0385
 EELEC  =    -21827.0207  EHBOND  =         0.0000  RESTRAINT  =         0.0000
 EKCMT  =         0.0000  VIRIAL  =         0.0000  VOLUME     =     58184.1279
                                                    Density    =         0.9998
 ------------------------------------------------------------------------------

      R M S  F L U C T U A T I O N S

 NSTEP =    50000   TIME(PS) =    1800.000  TEMP(K) =     3.13  PRESS =     0.0
 Etot   =        82.8458  EKtot   =        36.3328  EPtot      =        72.5710
 BOND   =         6.4856  ANGLE   =         9.7182  DIHED      =         5.0222
 1-4 NB =         3.3268  1-4 EEL =        11.4648  VDWAALS    =        69.7238
 EELEC  =       115.8846  EHBOND  =         0.0000  RESTRAINT  =         0.0000
 EKCMT  =         0.0000  VIRIAL  =         0.0000  VOLUME     =       350.2936
                                                    Density    =         0.0060
 ------------------------------------------------------------------------------
