-------------------------------------------------------
          Amber 14 SANDER                              2014
          -------------------------------------------------------

  [-O]verwriting output

File Assignments:

 Here is the input file:

NPT prod
 &cntrl
  imin=0, ! Not a minimization run
  ntx=5, ! Read coordinates and velocities from restart file
  irest=1, ! Restart from previous, expecting velocities
  ntxo=2, ! The final coords, velocities, box size in NetCDF
  ioutfm=1, ! Print mdcrd to NetCDF format
  ntwr=100000, ! Very high value for how often restart file is written
  nstlim=50000 ! 100 ps of NPT equilibration
  dt=0.002, ! Time step in picoseconds, so this is 2 fs
  ntf=2, ! Do not calc the force for SHAKE constrained bonds
  ntc=2, ! Use SHAKE for all hydrogen bonds
  temp0=300.0, ! Thermostat temperature, Run at this temperature
  ntpr=1000, ! How often to print
  ntwx=1000, ! Write coordinates every 2 ps
  cut=8.0, ! Nonbonded cutoff
  ntb=2, ! Use PBC and constant pressure
  ntp=1, ! Isotropic pressure scaling
  barostat=2, ! Use Monte Carlo barostat
  taup=1, ! Pressure relaxation time
  ntt=3, ! Use the Lengevin thermostat
  gamma_ln=1.0, ! Frequency of collisions for thermostat
  ig=-1, ! Randomize seed for Langevin thermostat
 /

Note: ig = -1. Setting random seed to   979521 based on wallclock time in
      microseconds.

--------------------------------------------------------------------------------
   1.  RESOURCE   USE:
--------------------------------------------------------------------------------

 getting box info from netcdf restart file
 NATOM  =    5771 NTYPES =      15 NBONH =    5616 MBONA  =     160
 NTHETH =     346 MTHETA =     219 NPHIH =     700 MPHIA  =     653
 NHPARM =       0 NPARM  =       0 NNB   =    8990 NRES   =    1843
 NBONA  =     160 NTHETA =     219 NPHIA =     653 NUMBND =      55
 NUMANG =     124 NPTRA  =     137 NATYP =      29 NPHB   =       1
 IFBOX  =       2 NMXRS  =      24 IFCAP =       0 NEXTRA =       0
 NCOPY  =       0

     BOX TYPE: TRUNCATED OCTAHEDRON

--------------------------------------------------------------------------------
   2.  CONTROL  DATA  FOR  THE  RUN
--------------------------------------------------------------------------------

default_name

General flags:
     imin    =       0, nmropt  =       0

Nature and format of input:
     ntx     =       5, irest   =       1, ntrx    =       1

Nature and format of output:
     ntxo    =       2, ntpr    =    1000, ntrx    =       1, ntwr    =  100000
     iwrap   =       0, ntwx    =    1000, ntwv    =       0, ntwe    =       0
     ioutfm  =       1, ntwprt  =       0, idecomp =       0, rbornstat=      0

Potential function:
     ntf     =       2, ntb     =       2, igb     =       0, nsnb    =      25
     ipol    =       0, gbsa    =       0, iesp    =       0
     dielc   =   1.00000, cut     =   8.00000, intdiel =   1.00000

Frozen or restrained atoms:
     ibelly  =       0, ntr     =       0

Molecular dynamics:
     nstlim  =     50000, nscm    =      1000, nrespa  =         1
     t       =   0.00000, dt      =   0.00200, vlimit  =  -1.00000

Langevin dynamics temperature regulation:
     ig      =  979521
     temp0   = 300.00000, tempi   =   0.00000, gamma_ln=   1.00000

Pressure regulation:
     ntp     =       1
     pres0   =   1.00000, comp    =  44.60000, taup    =   1.00000
     Monte-Carlo Barostat:
     mcbarint  =     100

SHAKE:
     ntc     =       2, jfastw  =       0
     tol     =   0.00001

Ewald parameters:
     verbose =       0, ew_type =       0, nbflag  =       1, use_pme =       1
     vdwmeth =       1, eedmeth =       1, netfrc  =       1
     Box X =   42.168   Box Y =   42.168   Box Z =   42.168
     Alpha =  109.471   Beta  =  109.471   Gamma =  109.471
     NFFT1 =   48       NFFT2 =   48       NFFT3 =   48
     Cutoff=    8.000   Tol   =0.100E-04
     Ewald Coefficient =  0.34864
     Interpolation order =    4

--------------------------------------------------------------------------------
   3.  ATOMIC COORDINATES AND VELOCITIES
--------------------------------------------------------------------------------

default_name
 begin time read from input coords =  1000.000 ps

 Number of triangulated 3-point waters found:     1822

     Sum of charges from parm topology file =  -0.00000001
     Forcing neutrality...

--------------------------------------------------------------------------------
   4.  RESULTS
 NSTEP =     1000   TIME(PS) =    1002.000  TEMP(K) =   305.97  PRESS =     0.0
 Etot   =    -14528.7854  EKtot   =      3556.0171  EPtot      =    -18084.8025
 BOND   =        54.4874  ANGLE   =       158.4003  DIHED      =       252.1832
 1-4 NB =        72.5916  1-4 EEL =       883.6371  VDWAALS    =      2335.8487
 EELEC  =    -21841.9506  EHBOND  =         0.0000  RESTRAINT  =         0.0000
 EKCMT  =         0.0000  VIRIAL  =         0.0000  VOLUME     =     57724.4985
                                                    Density    =         1.0077
 ------------------------------------------------------------------------------

      A V E R A G E S   O V E R      50 S T E P S

 NSTEP =    50000   TIME(PS) =    1100.000  TEMP(K) =   298.86  PRESS =     0.0
 Etot   =    -14556.2667  EKtot   =      3473.3958  EPtot      =    -18029.6625
 BOND   =        60.1398  ANGLE   =       160.5404  DIHED      =       247.8845
 1-4 NB =        66.6889  1-4 EEL =       861.3869  VDWAALS    =      2432.5320
 EELEC  =    -21858.8351  EHBOND  =         0.0000  RESTRAINT  =         0.0000
 EKCMT  =         0.0000  VIRIAL  =         0.0000  VOLUME     =     57914.5487
                                                    Density    =         1.0045
 ------------------------------------------------------------------------------

      R M S  F L U C T U A T I O N S

 NSTEP =    50000   TIME(PS) =    1100.000  TEMP(K) =     4.51  PRESS =     0.0
 Etot   =        68.5348  EKtot   =        52.4626  EPtot      =        61.3056
 BOND   =         6.7339  ANGLE   =         8.4817  DIHED      =         5.5447
 1-4 NB =         3.4978  1-4 EEL =         8.6725  VDWAALS    =        66.3328
 EELEC  =        98.5346  EHBOND  =         0.0000  RESTRAINT  =         0.0000
 EKCMT  =         0.0000  VIRIAL  =         0.0000  VOLUME     =       337.0701
                                                    Density    =         0.0058
 ------------------------------------------------------------------------------
