-------------------------------------------------------
          Amber 14 SANDER                              2014
          -------------------------------------------------------

  [-O]verwriting output

File Assignments:

 Here is the input file:

NPT equilibration
 &cntrl
  imin=0, ! Not a minimization run
  ntx=5, ! Read coordinates and velocities from restart file
  irest=1, ! Restart from previous, expecting velocities
  ntxo=2, ! The final coords, velocities, box size in NetCDF
  ioutfm=1, ! Print mdcrd to NetCDF format
  ntwr=100000, ! Very high value for how often restart file is written
  nstlim=50000, ! 100 ps of NPT equilibration
  dt=0.002, ! Time step in picoseconds, so this is 2 fs
  ntf=2, ! Do not calc the force for SHAKE constrained bonds
  ntc=2, ! Use SHAKE for all hydrogen bonds
  temp0=300.0, ! Thermostat temperature, Run at this temperature
  ntpr=1000, ! How often to print
  ntwx=1000, ! Write coordinates every 2 ps
  cut=8.0, ! Nonbonded cutoff
  ntb=2, ! Use PBC and constant pressure
  ntp=1, ! Isotropic pressure scaling
  barostat=2, ! Use Monte Carlo barostat
  taup=1, ! Pressure relaxation time
  ntt=3, ! Use the Lengevin thermostat
  gamma_ln=1.0, ! Frequency of collisions for thermostat
  ig=-1, ! Randomize seed for Langevin thermostat
  ntr=1, ! turn on restraints
  restraint_wt=2.5, ! force constant for restraints
  restraintmask=':1-20,@CA,C,O,N', ! restrained atoms
 /

Note: ig = -1. Setting random seed to   649695 based on wallclock time in
      microseconds.

--------------------------------------------------------------------------------
   1.  RESOURCE   USE:
--------------------------------------------------------------------------------

 getting box info from netcdf restart file
 NATOM  =    5771 NTYPES =      15 NBONH =    5616 MBONA  =     160
 NTHETH =     346 MTHETA =     219 NPHIH =     700 MPHIA  =     653
 NHPARM =       0 NPARM  =       0 NNB   =    8990 NRES   =    1843
 NBONA  =     160 NTHETA =     219 NPHIA =     653 NUMBND =      55
 NUMANG =     124 NPTRA  =     137 NATYP =      29 NPHB   =       1
 IFBOX  =       2 NMXRS  =      24 IFCAP =       0 NEXTRA =       0
 NCOPY  =       0

     BOX TYPE: TRUNCATED OCTAHEDRON

--------------------------------------------------------------------------------
   2.  CONTROL  DATA  FOR  THE  RUN
--------------------------------------------------------------------------------

default_name

General flags:
     imin    =       0, nmropt  =       0

Nature and format of input:
     ntx     =       5, irest   =       1, ntrx    =       1

Nature and format of output:
     ntxo    =       2, ntpr    =    1000, ntrx    =       1, ntwr    =  100000
     iwrap   =       0, ntwx    =    1000, ntwv    =       0, ntwe    =       0
     ioutfm  =       1, ntwprt  =       0, idecomp =       0, rbornstat=      0

Potential function:
     ntf     =       2, ntb     =       2, igb     =       0, nsnb    =      25
     ipol    =       0, gbsa    =       0, iesp    =       0
     dielc   =   1.00000, cut     =   8.00000, intdiel =   1.00000

Frozen or restrained atoms:
     ibelly  =       0, ntr     =       1
     restraint_wt =   2.50000

Molecular dynamics:
     nstlim  =     50000, nscm    =         0, nrespa  =         1
     t       =   0.00000, dt      =   0.00200, vlimit  =  -1.00000

Langevin dynamics temperature regulation:
     ig      =  649695
     temp0   = 300.00000, tempi   =   0.00000, gamma_ln=   1.00000

Pressure regulation:
     ntp     =       1
     pres0   =   1.00000, comp    =  44.60000, taup    =   1.00000
     Monte-Carlo Barostat:
     mcbarint  =     100

SHAKE:
     ntc     =       2, jfastw  =       0
     tol     =   0.00001

Ewald parameters:
     verbose =       0, ew_type =       0, nbflag  =       1, use_pme =       1
     vdwmeth =       1, eedmeth =       1, netfrc  =       1
     Box X =   42.261   Box Y =   42.261   Box Z =   42.261
     Alpha =  109.471   Beta  =  109.471   Gamma =  109.471
     NFFT1 =   48       NFFT2 =   48       NFFT3 =   48
     Cutoff=    8.000   Tol   =0.100E-04
     Ewald Coefficient =  0.34864
     Interpolation order =    4

    LOADING THE CONSTRAINED ATOMS AS GROUPS

   5.  REFERENCE ATOM COORDINATES

  default_name
     Mask :1-20,@CA,C,O,N; matches    80 atoms

--------------------------------------------------------------------------------
   3.  ATOMIC COORDINATES AND VELOCITIES
--------------------------------------------------------------------------------

default_name
 begin time read from input coords =   400.000 ps

 Number of triangulated 3-point waters found:     1822

     Sum of charges from parm topology file =  -0.00000001
     Forcing neutrality...

--------------------------------------------------------------------------------
   4.  RESULTS
 NSTEP =     1000   TIME(PS) =     402.000  TEMP(K) =   303.79  PRESS =     0.0
 Etot   =    -14334.0848  EKtot   =      3530.7234  EPtot      =    -17864.8082
 BOND   =        50.1858  ANGLE   =       168.9075  DIHED      =       250.4533
 1-4 NB =        70.2339  1-4 EEL =       868.0537  VDWAALS    =      2430.1035
 EELEC  =    -21714.6197  EHBOND  =         0.0000  RESTRAINT  =        11.8737
 EAMBER (non-restraint)  =    -17876.6819
 EKCMT  =         0.0000  VIRIAL  =         0.0000  VOLUME     =     58361.5166
                                                    Density    =         0.9967
 ------------------------------------------------------------------------------

      A V E R A G E S   O V E R      50 S T E P S

 NSTEP =    50000   TIME(PS) =     500.000  TEMP(K) =   298.95  PRESS =     0.0
 Etot   =    -14500.6525  EKtot   =      3474.4570  EPtot      =    -17975.1095
 BOND   =        57.8855  ANGLE   =       159.0070  DIHED      =       252.5341
 1-4 NB =        67.6714  1-4 EEL =       861.8388  VDWAALS    =      2428.7923
 EELEC  =    -21816.8638  EHBOND  =         0.0000  RESTRAINT  =        14.0251
 EAMBER (non-restraint)  =    -17989.1346
 EKCMT  =         0.0000  VIRIAL  =         0.0000  VOLUME     =     57937.9237
                                                    Density    =         1.0041
 ------------------------------------------------------------------------------

      R M S  F L U C T U A T I O N S

 NSTEP =    50000   TIME(PS) =     500.000  TEMP(K) =     3.49  PRESS =     0.0
 Etot   =        91.0505  EKtot   =        40.6143  EPtot      =        75.1744
 BOND   =         6.6817  ANGLE   =        11.9318  DIHED      =         4.8069
 1-4 NB =         3.8916  1-4 EEL =         8.6847  VDWAALS    =        69.7843
 EELEC  =       118.8302  EHBOND  =         0.0000  RESTRAINT  =         2.4776
 EAMBER (non-restraint)  =        72.6968
 EKCMT  =         0.0000  VIRIAL  =         0.0000  VOLUME     =       426.2718
                                                    Density    =         0.0074
 ------------------------------------------------------------------------------
