-------------------------------------------------------
          Amber 14 SANDER                              2014
          -------------------------------------------------------

  [-O]verwriting output

File Assignments:

 Here is the input file:

NPT equilibration
 &cntrl
  imin=0, ! Not a minimization run
  ntx=5, ! Read coordinates and velocities from restart file
  irest=1, ! Restart from previous, expecting velocities
  ntxo=2, ! The final coords, velocities, box size in NetCDF
  ioutfm=1, ! Print mdcrd to NetCDF format
  ntwr=100000, ! Very high value for how often restart file is written
  nstlim=50000, ! 100 ps of NPT equilibration
  dt=0.002, ! Time step in picoseconds, so this is 2 fs
  ntf=2, ! Do not calc the force for SHAKE constrained bonds
  ntc=2, ! Use SHAKE for all hydrogen bonds
  temp0=300.0, ! Thermostat temperature, Run at this temperature
  ntpr=1000, ! How often to print
  ntwx=1000, ! Write coordinates every 2 ps
  cut=8.0, ! Nonbonded cutoff
  ntb=2, ! Use PBC and constant pressure
  ntp=1, ! Isotropic pressure scaling
  barostat=2, ! Use Monte Carlo barostat
  taup=1, ! Pressure relaxation time
  ntt=3, ! Use the Lengevin thermostat
  gamma_ln=1.0, ! Frequency of collisions for thermostat
  ig=-1, ! Randomize seed for Langevin thermostat
  ntr=1, ! turn on restraints
  restraint_wt=0.5, ! force constant for restraints
  restraintmask=':1-20,@CA,C,O,N', ! restrained atoms
 /

Note: ig = -1. Setting random seed to   421069 based on wallclock time in
      microseconds.

--------------------------------------------------------------------------------
   1.  RESOURCE   USE:
--------------------------------------------------------------------------------

 getting box info from netcdf restart file
 NATOM  =    5771 NTYPES =      15 NBONH =    5616 MBONA  =     160
 NTHETH =     346 MTHETA =     219 NPHIH =     700 MPHIA  =     653
 NHPARM =       0 NPARM  =       0 NNB   =    8990 NRES   =    1843
 NBONA  =     160 NTHETA =     219 NPHIA =     653 NUMBND =      55
 NUMANG =     124 NPTRA  =     137 NATYP =      29 NPHB   =       1
 IFBOX  =       2 NMXRS  =      24 IFCAP =       0 NEXTRA =       0
 NCOPY  =       0

     BOX TYPE: TRUNCATED OCTAHEDRON

--------------------------------------------------------------------------------
   2.  CONTROL  DATA  FOR  THE  RUN
--------------------------------------------------------------------------------

default_name

General flags:
     imin    =       0, nmropt  =       0

Nature and format of input:
     ntx     =       5, irest   =       1, ntrx    =       1

Nature and format of output:
     ntxo    =       2, ntpr    =    1000, ntrx    =       1, ntwr    =  100000
     iwrap   =       0, ntwx    =    1000, ntwv    =       0, ntwe    =       0
     ioutfm  =       1, ntwprt  =       0, idecomp =       0, rbornstat=      0

Potential function:
     ntf     =       2, ntb     =       2, igb     =       0, nsnb    =      25
     ipol    =       0, gbsa    =       0, iesp    =       0
     dielc   =   1.00000, cut     =   8.00000, intdiel =   1.00000

Frozen or restrained atoms:
     ibelly  =       0, ntr     =       1
     restraint_wt =   0.50000

Molecular dynamics:
     nstlim  =     50000, nscm    =         0, nrespa  =         1
     t       =   0.00000, dt      =   0.00200, vlimit  =  -1.00000

Langevin dynamics temperature regulation:
     ig      =  421069
     temp0   = 300.00000, tempi   =   0.00000, gamma_ln=   1.00000

Pressure regulation:
     ntp     =       1
     pres0   =   1.00000, comp    =  44.60000, taup    =   1.00000
     Monte-Carlo Barostat:
     mcbarint  =     100

SHAKE:
     ntc     =       2, jfastw  =       0
     tol     =   0.00001

Ewald parameters:
     verbose =       0, ew_type =       0, nbflag  =       1, use_pme =       1
     vdwmeth =       1, eedmeth =       1, netfrc  =       1
     Box X =   42.152   Box Y =   42.152   Box Z =   42.152
     Alpha =  109.471   Beta  =  109.471   Gamma =  109.471
     NFFT1 =   48       NFFT2 =   48       NFFT3 =   48
     Cutoff=    8.000   Tol   =0.100E-04
     Ewald Coefficient =  0.34864
     Interpolation order =    4

    LOADING THE CONSTRAINED ATOMS AS GROUPS

   5.  REFERENCE ATOM COORDINATES

  default_name
     Mask :1-20,@CA,C,O,N; matches    80 atoms

--------------------------------------------------------------------------------
   3.  ATOMIC COORDINATES AND VELOCITIES
--------------------------------------------------------------------------------

default_name
 begin time read from input coords =   600.000 ps

 Number of triangulated 3-point waters found:     1822

     Sum of charges from parm topology file =  -0.00000001
     Forcing neutrality...

--------------------------------------------------------------------------------
   4.  RESULTS
 NSTEP =     1000   TIME(PS) =     602.000  TEMP(K) =   295.41  PRESS =     0.0
 Etot   =    -14490.4306  EKtot   =      3433.3062  EPtot      =    -17923.7368
 BOND   =        57.4449  ANGLE   =       146.4164  DIHED      =       260.3658
 1-4 NB =        72.5674  1-4 EEL =       877.9622  VDWAALS    =      2385.3572
 EELEC  =    -21728.9891  EHBOND  =         0.0000  RESTRAINT  =         5.1386
 EAMBER (non-restraint)  =    -17928.8753
 EKCMT  =         0.0000  VIRIAL  =         0.0000  VOLUME     =     57477.5849
                                                    Density    =         1.0121
 ------------------------------------------------------------------------------

      A V E R A G E S   O V E R      50 S T E P S

 NSTEP =    50000   TIME(PS) =     700.000  TEMP(K) =   299.59  PRESS =     0.0
 Etot   =    -14509.8000  EKtot   =      3481.9087  EPtot      =    -17991.7088
 BOND   =        59.3735  ANGLE   =       161.0012  DIHED      =       251.4246
 1-4 NB =        67.9230  1-4 EEL =       864.5862  VDWAALS    =      2424.9989
 EELEC  =    -21830.6824  EHBOND  =         0.0000  RESTRAINT  =         9.6662
 EAMBER (non-restraint)  =    -18001.3749
 EKCMT  =         0.0000  VIRIAL  =         0.0000  VOLUME     =     57898.4021
                                                    Density    =         1.0048
 ------------------------------------------------------------------------------

      R M S  F L U C T U A T I O N S

 NSTEP =    50000   TIME(PS) =     700.000  TEMP(K) =     3.36  PRESS =     0.0
 Etot   =        64.4249  EKtot   =        39.0594  EPtot      =        61.0370
 BOND   =         6.6200  ANGLE   =         8.2857  DIHED      =         6.1350
 1-4 NB =         3.3079  1-4 EEL =        10.4767  VDWAALS    =        74.0478
 EELEC  =       109.0787  EHBOND  =         0.0000  RESTRAINT  =         2.1410
 EAMBER (non-restraint)  =        58.8959
 EKCMT  =         0.0000  VIRIAL  =         0.0000  VOLUME     =       383.3288
                                                    Density    =         0.0066
 ------------------------------------------------------------------------------
